/batch
/config,noeldb,1     ! force off writing results to database
*get,_wallstrt,active,,time,wall
! ANSYS input file written by Workbench version 2025 R1
! File used for geometry attach: C:\Users\neinh\AppData\Local\Temp\WB_neinh_14896_2\wbnew_files\dp0\SYS\DM\SYS.scdocx
/title,wbnew--Static Structural (A5)
! ****** Begin Custom Load Command Snippet ******
/COM, ACT Extensions:
/COM,     LSDYNA, 2025.1
/COM,     5f463412-bd3e-484b-87e7-cbc0a665e474, wbex
/COM,/COM,     ANSYSMotion, 2025.1
/COM,     20180725-3f81-49eb-9f31-41364844c769, wbex
/COM,
! ****** End   Custom Load Command Snippet ******
*DIM,_wb_ProjectScratch_dir,string,248
_wb_ProjectScratch_dir(1) = 'C:\Users\neinh\AppData\Local\Temp\WB_neinh_14896_2\_ProjectScratch\Scr91F5\'
*DIM,_wb_SolverFiles_dir,string,248
_wb_SolverFiles_dir(1) = 'C:\Users\neinh\AppData\Local\Temp\WB_neinh_14896_2\wbnew_files\dp0\SYS\MECH\'
*DIM,_wb_userfiles_dir,string,248
_wb_userfiles_dir(1) = 'C:\Users\neinh\AppData\Local\Temp\WB_neinh_14896_2\wbnew_files\user_files\'
/com,--- Data in consistent MKS units. See Solving Units in the help system for more information.
/units,MKS
/nopr
/wb,file,start              !  signify a WB generated input file
/prep7
! Turn off shape checking because checks already performed inside WB mesher.
! See help system for more information.
SHPP,OFF,,NOWARN
/nolist
etcon,set             ! allow ANSYS to choose best KEYOP's for 180x elements, resets any applicable keyopt to MAPDL defaults
/com,*********** Nodes for the whole assembly ***********
nblock,3,,31660
(1i9,3e20.9e3)
        1     1.180000000E+00     0.000000000E+00     0.000000000E+00
        2     8.200000000E-01     2.204364238E-17     0.000000000E+00
        3     1.800000000E+00     0.000000000E+00     0.000000000E+00
        4     5.000000000E-01    -9.184547654E-17     0.000000000E+00
        5     1.800000000E+00     6.000000000E-01     0.000000000E+00
        6     0.000000000E+00     6.000000000E-01     0.000000000E+00
        7     0.000000000E+00     2.500000000E-01     0.000000000E+00
        8     1.179736010E+00     9.745078117E-03     0.000000000E+00
        9     1.178944817E+00     1.946156666E-02     0.000000000E+00
       10     1.177628741E+00     2.912096404E-02     0.000000000E+00
       11     1.175791643E+00     3.869493679E-02     0.000000000E+00
       12     1.173438915E+00     4.815540250E-02     0.000000000E+00
       13     1.170577457E+00     5.747461201E-02     0.000000000E+00
       14     1.167215665E+00     6.662523070E-02     0.000000000E+00
       15     1.163363400E+00     7.558041863E-02     0.000000000E+00
       16     1.159031961E+00     8.431390919E-02     0.000000000E+00
       17     1.154234056E+00     9.280008614E-02     0.000000000E+00
       18     1.148983757E+00     1.010140587E-01     0.000000000E+00
       19     1.143296466E+00     1.089317346E-01     0.000000000E+00
       20     1.137188865E+00     1.165298906E-01     0.000000000E+00
! ... 28763 like lines cut
/wb,elem,start            !  set before creation of elements
/com,*********** Elements for Body 1 'SYS\Surface' ***********
et,1,183
keyo,1,3,3
eblock,19,solid,,9493
(19i9)
        1        1        1        1        0        0        0        0        8        0        1      969     7618     8711     8711    11913    27728     8711    11914
        1        1        1        1        0        0        0        0        8        0        2     1937     7909     9016     9016    14346    27985     9016    14347
        1        1        1        1        0        0        0        0        8        0        3     2864     9001     8828     8828    16797    28633     8828    16796
        1        1        1        1        0        0        0        0        8        0        4     2886     2537     2525     2525    15943    15902     2525    15904
        1        1        1        1        0        0        0        0        8        0        5     5487     8628     5963     5963    23255    24412     5963    23253
        1        1        1        1        0        0        0        0        8        0        6     2951     3143     2820     2820    16994    16659     2820    16658
        1        1        1        1        0        0        0        0        8        0        7     3580     3597     7880     7880    18585    18633     7880    18587
        1        1        1        1        0        0        0        0        8        0        8     7813     8244     4314     4314    27903    20399     4314    20398
        1        1        1        1        0        0        0        0        8        0        9     2860     3214     2880     2880    16786    16830     2880    16784
        1        1        1        1        0        0        0        0        8        0       10     2533     2547     2894     2894    15928    15972     2894    15930
        1        1        1        1        0        0        0        0        8        0       11     3677     8025     3194     3194    18825    17626     3194    17624
        1        1        1        1        0        0        0        0        8        0       12     2947     2815     3294     3294    16641    16642     3294    16985
        1        1        1        1        0        0        0        0        8        0       13     2229     1920     1930     1930    14307    14305     1930    14331
        1        1        1        1        0        0        0        0        8        0       14     4687     4660     5073     5073    21233    21235     5073    21303
        1        1        1        1        0        0        0        0        8        0       15     8225      656      798      798    11080    11079      798    11479
        1        1        1        1        0        0        0        0        8        0       16     2177     2810     2467     2467    14976    15725     2467    14974
        1        1        1        1        0        0        0        0        8        0       17     1801     1500     1802     1802    13248    13249     1802    14026
        1        1        1        1        0        0        0        0        8        0       18     4648     9595     9593     9593    21206    28752     9593    21205
        1        1        1        1        0        0        0        0        8        0       19     1045      910     9062     9062    11759    11763     9062    12111
        1        1        1        1        0        0        0        0        8        0       20      911      980     1207     1207    11764    11949     1207    11766
! ... 9474 like lines cut
! Material Id = {D13E1B0E-2F35-48AB-B0C7-02F9224FFBD5}
/wb,elem,end               !  done creating elements
/com,*********** Send User Defined Coordinate System(s) ***********
csys,0
toffst,273.15,      ! Temperature offset from absolute zero
/com,*********** Set Reference Temperature ***********
tref,22.
/wb,mat,start              !  starting to send materials
/com,*********** Send Materials ***********
Temperature = 'TEMP' ! Temperature
MP,DENS,1,7850,	! kg m^-3
MP,ALPX,1,1.2e-05,	! C^-1
MP,C,1,434,	! J kg^-1 C^-1
MP,KXX,1,60.5,	! W m^-1 C^-1
MP,RSVX,1,1.7e-07,	! kg m^3 A^-2 s^-3
MP,EX,1,200000000000,	! Pa
MP,NUXY,1,0.3,
MP,MURX,1,10000,
MP,UVID,1,a35fffaa-5e09-46fd-be3d-487a4924e2bc
MP,UMID,1,59002a79-71c2-428e-906b-55d7dbee100e

/wb,mat,end                !  done sending materials
/com,*********** Send Sheet Properties ***********
r,1,1.

!************************* Model Summary ********************
!SYS\Surface,	Structural Steel,	matid,	1
!************************* End Model Summary ********************
! get the diagonal of the bounding box. Needed later for other things
*get,_xmin,node,,mnloc,x
*get,_ymin,node,,mnloc,y
*get,_zmin,node,,mnloc,z
*get,_xmax,node,,mxloc,x
*get,_ymax,node,,mxloc,y
*get,_zmax,node,,mxloc,z
_ASMDIAG=(_xmax-_xmin)*(_xmax-_xmin)+(_ymax-_ymin)*(_ymax-_ymin)+(_zmax-_zmin)*(_zmax-_zmin)
_ASMDIAG=SQRT(_ASMDIAG)
/wb,contact,start          !  starting to send contact
/wb,contact,end            !  done creating contacts
/golist
/wb,load,start             !  starting to send loads
/com,******* Constant Zero Displacement X *******
CMBLOCK,_DISPZEROUX,NODE,       71
(8i10)
         6         7       395       396       397       398       399       400
       401       402       403       404       405       406       407       408
       409       410       411       412       413       414       415       416
       417       418       419       420       421       422       423       424
       425       426       427       428      9657      9658     10429     10431
     10433     10435     10437     10439     10441     10443     10445     10447
     10449     10451     10453     10455     10457     10459     10461     10463
     10465     10467     10469     10471     10473     10475     10477     10479
     10481     10483     10485     10487     10489     10491     10493
cmsel,s,_DISPZEROUX
d,all,ux,0
nsel,all
/com,******* Constant Zero Displacement Y *******
CMBLOCK,_DISPZEROUY,NODE,      190
(8i10)
         1         2         3         4        65        66        67        68
        69        70        71        72        73        74        75        76
        77        78        79        80        81        82        83        84
        85        86        87        88        89        90        91        92
        93        94        95        96        97        98        99       100
       101       102       103       104       105       106       107       108
       109       110       111       112       113       114       115       116
       117       118       119       120       121       122       123       124
       125       126       127       128       129       130       131       132
       133       134       135       136       137       138       139       140
       141       142       143       144       145       146       147       148
       149       150       151       152       153       154       155       156
      9647      9649      9650      9652      9773      9775      9777      9779
      9781      9783      9785      9787      9789      9791      9793      9795
      9797      9799      9801      9803      9805      9807      9809      9811
      9813      9815      9817      9819      9821      9823      9825      9827
      9829      9831      9833      9835      9837      9839      9841      9843
      9845      9847      9849      9851      9853      9855      9857      9859
      9861      9863      9865      9867      9869      9871      9873      9875
      9877      9879      9881      9883      9885      9887      9889      9891
! ... 4 like lines cut
cmsel,s,_DISPZEROUY
d,all,uy,0
nsel,all
/com,*********** Define Pressure Using Surface Effect Elements "Pressure" ***********
et,2,153
keyop,2,3,10        ! get plane stress option and thickness from underlying element
eblock,10,,,60
(15i9)
     9494        2        2        2        0        5      215     9654
     9495        2        2        2        0      215      214    10069
     9496        2        2        2        0      214      213    10067
     9497        2        2        2        0      213      212    10065
     9498        2        2        2        0      212      211    10063
     9499        2        2        2        0      211      210    10061
     9500        2        2        2        0      210      209    10059
     9501        2        2        2        0      209      208    10057
     9502        2        2        2        0      208      207    10055
     9503        2        2        2        0      207      206    10053
     9504        2        2        2        0      206      205    10051
     9505        2        2        2        0      205      204    10049
     9506        2        2        2        0      204      203    10047
     9507        2        2        2        0      203      202    10045
     9508        2        2        2        0      202      201    10043
     9509        2        2        2        0      201      200    10041
     9510        2        2        2        0      200      199    10039
     9511        2        2        2        0      199      198    10037
     9512        2        2        2        0      198      197    10035
     9513        2        2        2        0      197      196    10033
! ... 41 like lines cut
esel,s,type,,2
keyop,2,7,0         ! Use deformed area for application of load
esel,all
esel,all
/gst,on,on
fini
*get,_numnode,node,0,count
*get,_numelem,elem,0,count
*get, _MAXELEMNUM, elem, 0, NUM, MAX
*get, _MAXNODENUM, node, 0, NUM, MAX
*get, _MAXELEMTYPE, etyp, 0, NUM, MAX
*get, _MAXREALCONST, rcon, 0, NUM, MAX
/go
/wb,load,end               !  done creating loads
/com,--- Number of total nodes = %_numnode%
/com,--- Number of contact elements = 60
/com,--- Number of spring elements = 0
/com,--- Number of bearing elements = 0
/com,--- Number of solid elements = 9493
/com,--- Number of condensed parts = 0
/com,--- Number of total elements = %_numelem%
*get,_wallbsol,active,,time,wall
/com,****************************************************************************
/com,*************************    SOLUTION       ********************************
/com,****************************************************************************
/solu
antype,0                   ! static analysis
_thickRatio=  0     ! Ratio of thick parts in the model
eqsl,sparse,,,,,1
cntr,print,1               ! print out contact info and also make no initial contact an error
cncheck,dmp		!	Enable program controlled contact splitting for distributed memory parallel run
dmpoption,emat,no             ! Don't combine emat file for DANSYS
dmpoption,esav,no             ! Don't combine esav file for DANSYS
nldiag,cont,iter           ! print out contact info each equilibrium iteration
rescontrol,,none                 ! Do not keep any restart files
/com,****************************************************
/com,******************* SOLVE FOR LS 1 OF 1 ****************
esel,s,type,,2
nsle
sf,all,pres,-1000000.
nsel,all
esel,all
esel,all
/nopr
/gopr
nsub,1,1,1
time,1.
outres,erase
outres,all,none
outres,nsol,all,
outres,rsol,all
outres,eangl,all
outres,etmp,all
outres,veng,all
outres,strs,all,
outres,epel,all,
outres,eppl,all,
outres,cont,all,
! *********** WB SOLVE COMMAND ***********
! check interactive state
*get,ANSINTER_,active,,int
*if,ANSINTER_,ne,0,then
/eof
*endif
solve
/com *************** Write FE CONNECTORS ********* 
CEWRITE,file,ce,,INTE
/com,****************************************************
/com,*************** FINISHED SOLVE FOR LS 1 *************
*get,_wallasol,active,,time,wall
/nopr
*get,_numnode,node,0,count
*get,_numelem,elem,0,count
*get, _MAXELEMNUM, elem, 0, NUM, MAX
*get, _MAXNODENUM, node, 0, NUM, MAX,,,INTERNAL
*get, _MAXELEMTYPE, etyp, 0, NUM, MAX
*get, _MAXREALCONST, rcon, 0, NUM, MAX
*get,_NSOLTHREADS,active,0,ntfs
*get,_NSOLPROCESSES,active,0,npfs
/gopr
/post1
xmlo,ENCODING,ISO-8859-1
xmlo,parm
/xml,parm,xml
fini
/gopr
*get,_walldone,active,,time,wall
_preptime=(_wallbsol-_wallstrt)*3600
_solvtime=(_wallasol-_wallbsol)*3600
_posttime=(_walldone-_wallasol)*3600
_totaltim=(_walldone-_wallstrt)*3600
*get,_dlbratio,active,0,solu,dlbr
*get,_combtime,active,0,solu,comb
*get,_ssmode,active,0,solu,ssmm
*get,_ndofs,active,0,solu,ndof
*get,_sol_end_time,active,0,set,time
*if,_sol_end_time,eq,1.000000,then
/fclean				!clean distributed files
*endif
/com,--- Total number of nodes = %_numnode%
/com,--- Total number of elements = %_numelem%
/com,--- Element load balance ratio = %_dlbratio%
/com,--- Time to combine distributed files = %_combtime%
/com,--- Sparse memory mode = %_ssmode%
/com,--- Number of DOF = %_ndofs%
/wb,file,end               ! done with WB generated input
