/batch
/config,noeldb,1     ! force off writing results to database
*get,_wallstrt,active,,time,wall
! ANSYS input file written by Workbench version 2024 R1
! File used for geometry attach: C:\Users\toberics\Downloads\Grupparbete-T.D\Håll.F\Projekt 2\ANSYS\Balk_2_files\dp0\SYS\DM\SYS.scdoc
/title,Balk_2--Static Structural (A5)
! ****** Begin Custom Load Command Snippet ******
/COM, ACT Extensions:
/COM,     LSDYNA, 2024.1
/COM,     5f463412-bd3e-484b-87e7-cbc0a665e474, wbex
/COM,/COM,     ANSYSMotion, 2024.1
/COM,     20180725-3f81-49eb-9f31-41364844c769, wbex
/COM,
! ****** End   Custom Load Command Snippet ******

/com,--- Data in consistent MKS units. See Solving Units in the help system for more information.
/units,MKS
/nopr
/wb,file,start              !  signify a WB generated input file
/prep7
! Turn off shape checking because checks already performed inside WB mesher.
! See help system for more information.
SHPP,OFF,,NOWARN
/nolist
etcon,set             ! allow ANSYS to choose best KEYOP's for 180x elements, resets any applicable keyopt to MAPDL defaults
/com,*********** Nodes for the whole assembly ***********
nblock,3,,620
(1i9,3e20.9e3)
        1    -6.000000000E-03     0.000000000E+00    -4.504000000E+00
        2     4.994000000E+00     0.000000000E+00    -4.504000000E+00
        3     9.400000000E-02     0.000000000E+00    -4.504000000E+00
        4     1.940000000E-01     0.000000000E+00    -4.504000000E+00
        5     2.940000000E-01     0.000000000E+00    -4.504000000E+00
        6     3.940000000E-01     0.000000000E+00    -4.504000000E+00
        7     4.940000000E-01     0.000000000E+00    -4.504000000E+00
        8     5.940000000E-01     0.000000000E+00    -4.504000000E+00
        9     6.940000000E-01     0.000000000E+00    -4.504000000E+00
       10     7.940000000E-01     0.000000000E+00    -4.504000000E+00
       11     8.940000000E-01     0.000000000E+00    -4.504000000E+00
       12     9.940000000E-01     0.000000000E+00    -4.504000000E+00
       13     1.094000000E+00     0.000000000E+00    -4.504000000E+00
       14     1.194000000E+00     0.000000000E+00    -4.504000000E+00
       15     1.294000000E+00     0.000000000E+00    -4.504000000E+00
       16     1.394000000E+00     0.000000000E+00    -4.504000000E+00
       17     1.494000000E+00     0.000000000E+00    -4.504000000E+00
       18     1.594000000E+00     0.000000000E+00    -4.504000000E+00
       19     1.694000000E+00     0.000000000E+00    -4.504000000E+00
       20     1.794000000E+00     0.000000000E+00    -4.504000000E+00
! ... 545 like lines cut
/wb,elem,start            !  set before creation of elements
/com,*********** Elements for Body 1 "Beam (Rectangular Tube2)" ***********
et,1,188
keyo,1,3,2
eblock,19,solid,,50
(19i9)
        1        1        1        1        0        0        0        0        3        0        1        1        3      283
        1        1        1        1        0        0        0        0        3        0        2        3        4      284
        1        1        1        1        0        0        0        0        3        0        3        4        5      285
        1        1        1        1        0        0        0        0        3        0        4        5        6      286
        1        1        1        1        0        0        0        0        3        0        5        6        7      287
        1        1        1        1        0        0        0        0        3        0        6        7        8      288
        1        1        1        1        0        0        0        0        3        0        7        8        9      289
        1        1        1        1        0        0        0        0        3        0        8        9       10      290
        1        1        1        1        0        0        0        0        3        0        9       10       11      291
        1        1        1        1        0        0        0        0        3        0       10       11       12      292
        1        1        1        1        0        0        0        0        3        0       11       12       13      293
        1        1        1        1        0        0        0        0        3        0       12       13       14      294
        1        1        1        1        0        0        0        0        3        0       13       14       15      295
        1        1        1        1        0        0        0        0        3        0       14       15       16      296
        1        1        1        1        0        0        0        0        3        0       15       16       17      297
        1        1        1        1        0        0        0        0        3        0       16       17       18      298
        1        1        1        1        0        0        0        0        3        0       17       18       19      299
        1        1        1        1        0        0        0        0        3        0       18       19       20      300
        1        1        1        1        0        0        0        0        3        0       19       20       21      301
        1        1        1        1        0        0        0        0        3        0       20       21       22      302
! ... 31 like lines cut
!Material Id = {C0909A66-57A9-4F85-9ADC-5E25AB002A98}
/com,*********** Elements for Body 2 "Beam (Rectangular Tube2)" ***********
et,2,188
keyo,2,3,2
eblock,19,solid,,51
(19i9)
        2        2        2        2        0        0        0        0        3        0       51       52       54      333
        2        2        2        2        0        0        0        0        3        0       52       54       55      334
        2        2        2        2        0        0        0        0        3        0       53       55       56      335
        2        2        2        2        0        0        0        0        3        0       54       56       57      336
        2        2        2        2        0        0        0        0        3        0       55       57       58      337
        2        2        2        2        0        0        0        0        3        0       56       58       59      338
        2        2        2        2        0        0        0        0        3        0       57       59       60      339
        2        2        2        2        0        0        0        0        3        0       58       60       61      340
        2        2        2        2        0        0        0        0        3        0       59       61       62      341
        2        2        2        2        0        0        0        0        3        0       60       62       63      342
        2        2        2        2        0        0        0        0        3        0       61       63       64      343
        2        2        2        2        0        0        0        0        3        0       62       64       65      344
        2        2        2        2        0        0        0        0        3        0       63       65       66      345
        2        2        2        2        0        0        0        0        3        0       64       66       67      346
        2        2        2        2        0        0        0        0        3        0       65       67       68      347
        2        2        2        2        0        0        0        0        3        0       66       68       69      348
        2        2        2        2        0        0        0        0        3        0       67       69       70      349
        2        2        2        2        0        0        0        0        3        0       68       70       71      350
        2        2        2        2        0        0        0        0        3        0       69       71       72      351
        2        2        2        2        0        0        0        0        3        0       70       72       73      352
! ... 32 like lines cut
!Material Id = {68464B5A-1D9F-40E6-8048-7ED3AF50FE0A}
/com,*********** Elements for Body 3 "Beam (Rectangular Tube)" ***********
et,3,188
keyo,3,3,2
eblock,19,solid,,90
(19i9)
        3        3        3        3        0        0        0        0        3        0      102      104      105      384
        3        3        3        3        0        0        0        0        3        0      103      105      106      385
        3        3        3        3        0        0        0        0        3        0      104      106      107      386
        3        3        3        3        0        0        0        0        3        0      105      107      108      387
        3        3        3        3        0        0        0        0        3        0      106      108      109      388
        3        3        3        3        0        0        0        0        3        0      107      109      110      389
        3        3        3        3        0        0        0        0        3        0      108      110      111      390
        3        3        3        3        0        0        0        0        3        0      109      111      112      391
        3        3        3        3        0        0        0        0        3        0      110      112      113      392
        3        3        3        3        0        0        0        0        3        0      111      113      114      393
        3        3        3        3        0        0        0        0        3        0      112      114      115      394
        3        3        3        3        0        0        0        0        3        0      113      115      116      395
        3        3        3        3        0        0        0        0        3        0      114      116      117      396
        3        3        3        3        0        0        0        0        3        0      115      117      118      397
        3        3        3        3        0        0        0        0        3        0      116      118      119      398
        3        3        3        3        0        0        0        0        3        0      117      119      120      399
        3        3        3        3        0        0        0        0        3        0      118      120      121      400
        3        3        3        3        0        0        0        0        3        0      119      121      122      401
        3        3        3        3        0        0        0        0        3        0      120      122      123      402
        3        3        3        3        0        0        0        0        3        0      121      123      124      403
! ... 71 like lines cut
!Material Id = {875C6B85-33AA-439A-AA83-D76A43477AD9}
/com,*********** Elements for Body 4 "Beam (Rectangular Tube)" ***********
et,4,188
keyo,4,3,2
eblock,19,solid,,91
(19i9)
        4        4        4        4        0        0        0        0        3        0      192       53      194      474
        4        4        4        4        0        0        0        0        3        0      193      194      195      475
        4        4        4        4        0        0        0        0        3        0      194      195      196      476
        4        4        4        4        0        0        0        0        3        0      195      196      197      477
        4        4        4        4        0        0        0        0        3        0      196      197      198      478
        4        4        4        4        0        0        0        0        3        0      197      198      199      479
        4        4        4        4        0        0        0        0        3        0      198      199      200      480
        4        4        4        4        0        0        0        0        3        0      199      200      201      481
        4        4        4        4        0        0        0        0        3        0      200      201      202      482
        4        4        4        4        0        0        0        0        3        0      201      202      203      483
        4        4        4        4        0        0        0        0        3        0      202      203      204      484
        4        4        4        4        0        0        0        0        3        0      203      204      205      485
        4        4        4        4        0        0        0        0        3        0      204      205      206      486
        4        4        4        4        0        0        0        0        3        0      205      206      207      487
        4        4        4        4        0        0        0        0        3        0      206      207      208      488
        4        4        4        4        0        0        0        0        3        0      207      208      209      489
        4        4        4        4        0        0        0        0        3        0      208      209      210      490
        4        4        4        4        0        0        0        0        3        0      209      210      211      491
        4        4        4        4        0        0        0        0        3        0      210      211      212      492
        4        4        4        4        0        0        0        0        3        0      211      212      213      493
! ... 72 like lines cut
!Material Id = {F51A31E0-D3F5-42E0-87A7-8D70D372EC23}
/wb,elem,end               !  done creating elements
/com,*********** Send User Defined Coordinate System(s) ***********
csys,0
toffst,273.15,  ! Temperature offset from absolute zero
/com,*********** Set Reference Temperature ***********
tref,22.
/wb,mat,start              !  starting to send materials
/com,*********** Send Materials ***********
Temperature = 'TEMP' ! Temperature
MP,DENS,1,7850,	! kg m^-3
MP,ALPX,1,1.2e-05,	! C^-1
MP,C,1,434,	! J kg^-1 C^-1
MP,KXX,1,60.5,	! W m^-1 C^-1
MP,RSVX,1,1.7e-07,	! kg m^3 A^-2 s^-3
MP,EX,1,200000000000,	! Pa
MP,NUXY,1,0.3,
MP,MURX,1,10000,
MP,UVID,1,ec9f25a2-1669-4b5a-8b6f-d82d4b95f505
MP,UMID,1,59002a79-71c2-428e-906b-55d7dbee100e

Temperature = 'TEMP' ! Temperature
MP,DENS,2,7850,	! kg m^-3
MP,ALPX,2,1.2e-05,	! C^-1
MP,C,2,434,	! J kg^-1 C^-1
MP,KXX,2,60.5,	! W m^-1 C^-1
MP,RSVX,2,1.7e-07,	! kg m^3 A^-2 s^-3
MP,EX,2,200000000000,	! Pa
MP,NUXY,2,0.3,
MP,MURX,2,10000,
MP,UVID,2,ec9f25a2-1669-4b5a-8b6f-d82d4b95f505
MP,UMID,2,59002a79-71c2-428e-906b-55d7dbee100e

Temperature = 'TEMP' ! Temperature
MP,DENS,3,7850,	! kg m^-3
MP,ALPX,3,1.2e-05,	! C^-1
MP,C,3,434,	! J kg^-1 C^-1
MP,KXX,3,60.5,	! W m^-1 C^-1
MP,RSVX,3,1.7e-07,	! kg m^3 A^-2 s^-3
MP,EX,3,200000000000,	! Pa
MP,NUXY,3,0.3,
MP,MURX,3,10000,
MP,UVID,3,ec9f25a2-1669-4b5a-8b6f-d82d4b95f505
MP,UMID,3,59002a79-71c2-428e-906b-55d7dbee100e

Temperature = 'TEMP' ! Temperature
MP,DENS,4,7850,	! kg m^-3
MP,ALPX,4,1.2e-05,	! C^-1
MP,C,4,434,	! J kg^-1 C^-1
MP,KXX,4,60.5,	! W m^-1 C^-1
MP,RSVX,4,1.7e-07,	! kg m^3 A^-2 s^-3
MP,EX,4,200000000000,	! Pa
MP,NUXY,4,0.3,
MP,MURX,4,10000,
MP,UVID,4,ec9f25a2-1669-4b5a-8b6f-d82d4b95f505
MP,UMID,4,59002a79-71c2-428e-906b-55d7dbee100e

/wb,mat,end                !  done sending materials
/com,*********** Send Beam Properties ***********
SECTYPE,1,BEAM,HREC
SECDATA,5.00000000000014e-002,0.100000000000001,3.99999999999996e-003,4.00000000000018e-003,3.99999999999996e-003,4.00000000000017e-003
secoffset,cent

SECTYPE,2,BEAM,HREC
SECDATA,5.00000000000014e-002,0.100000000000001,3.99999999999996e-003,4.00000000000018e-003,3.99999999999996e-003,4.00000000000017e-003
secoffset,cent

SECTYPE,3,BEAM,HREC
SECDATA,5.00000000000014e-002,5.00000000000014e-002,1.99999999999995e-003,2.00000000000023e-003,1.99999999999995e-003,2.00000000000023e-003
secoffset,cent

SECTYPE,4,BEAM,HREC
SECDATA,5.00000000000014e-002,5.00000000000014e-002,1.99999999999995e-003,2.00000000000023e-003,1.99999999999995e-003,2.00000000000023e-003
secoffset,cent

!************************* Model Summary ********************
!Beam (Rectangular Tube2),	Structural Steel,	matid,	1
!Beam (Rectangular Tube2),	Structural Steel,	matid,	2
!Beam (Rectangular Tube),	Structural Steel,	matid,	3
!Beam (Rectangular Tube),	Structural Steel,	matid,	4
!************************* End Model Summary ********************
! get the diagonal of the bounding box. Needed later for other things
*get,_xmin,node,,mnloc,x
*get,_ymin,node,,mnloc,y
*get,_zmin,node,,mnloc,z
*get,_xmax,node,,mxloc,x
*get,_ymax,node,,mxloc,y
*get,_zmax,node,,mxloc,z
_ASMDIAG=(_xmax-_xmin)*(_xmax-_xmin)+(_ymax-_ymin)*(_ymax-_ymin)+(_zmax-_zmin)*(_zmax-_zmin)
_ASMDIAG=SQRT(_ASMDIAG)
/wb,contact,start          !  starting to send contact
/wb,contact,end            !  done creating contacts
/golist
/wb,load,start             !  starting to send loads
CMBLOCK,_CM44_FIXEDSU,NODE,        1
(8i10)
       104
/com,*********** Create Displacement Components For Use In Future MSUP or Multistage Analysis ******
CMBLOCK,_CM120_DISP,NODE,      282
(8i10)
         1         2         3         4         5         6         7         8
         9        10        11        12        13        14        15        16
        17        18        19        20        21        22        23        24
        25        26        27        28        29        30        31        32
        33        34        35        36        37        38        39        40
        41        42        43        44        45        46        47        48
        49        50        51        52        53        54        55        56
        57        58        59        60        61        62        63        64
        65        66        67        68        69        70        71        72
        73        74        75        76        77        78        79        80
        81        82        83        84        85        86        87        88
        89        90        91        92        93        94        95        96
        97        98        99       100       101       102       103       104
       105       106       107       108       109       110       111       112
       113       114       115       116       117       118       119       120
       121       122       123       124       125       126       127       128
       129       130       131       132       133       134       135       136
       137       138       139       140       141       142       143       144
       145       146       147       148       149       150       151       152
       153       154       155       156       157       158       159       160
! ... 16 like lines cut
/com,*********** Create Displacement Components For Use In Future MSUP or Multistage Analysis ******
CMBLOCK,_CM46_DISP,NODE,        1
(8i10)
       193
/com,*********** Fixed Supports ***********
CMBLOCK,_FIXEDSU,NODE,        1
(8i10)
       104
cmsel,s,_FIXEDSU
d,all,all
nsel,all
/com,******* Constant Zero Displacement Y *******
CMBLOCK,_DISPZEROUY,NODE,      281
(8i10)
         1         2         3         4         5         6         7         8
         9        10        11        12        13        14        15        16
        17        18        19        20        21        22        23        24
        25        26        27        28        29        30        31        32
        33        34        35        36        37        38        39        40
        41        42        43        44        45        46        47        48
        49        50        51        52        53        54        55        56
        57        58        59        60        61        62        63        64
        65        66        67        68        69        70        71        72
        73        74        75        76        77        78        79        80
        81        82        83        84        85        86        87        88
        89        90        91        92        93        94        95        96
        97        98        99       100       101       102       103       105
       106       107       108       109       110       111       112       113
       114       115       116       117       118       119       120       121
       122       123       124       125       126       127       128       129
       130       131       132       133       134       135       136       137
       138       139       140       141       142       143       144       145
       146       147       148       149       150       151       152       153
       154       155       156       157       158       159       160       161
! ... 16 like lines cut
cmsel,s,_DISPZEROUY
d,all,uy,0
nsel,all
/com,******* Constant Zero Displacement Z *******
CMBLOCK,_DISPZEROUZ,NODE,        1
(8i10)
       193
cmsel,s,_DISPZEROUZ
d,all,uz,0
nsel,all
/com,*********** Define Vertex Force Using Follower Elements ***********
et,5,201
keyo,5,1,1           ! Keep the direction constant
keyo,5,2,1           ! Apply Forces only, not moment
mat,5
real,5
type,5
en,283,1
r,5
rmod,5,1,1.0,              ! FX
mat,6
real,6
type,5
en,284,1
r,6
rmod,6,2,1.0,              ! FY
mat,7
real,7
type,5
en,285,1
r,7
rmod,7,3,1.0,              ! FZ
/gst,on,on
fini
*get,_numnode,node,0,count
*get,_numelem,elem,0,count
*get, _MAXELEMNUM, elem, 0, NUM, MAX
*get, _MAXNODENUM, node, 0, NUM, MAX
*get, _MAXELEMTYPE, etyp, 0, NUM, MAX
*get, _MAXREALCONST, rcon, 0, NUM, MAX
/go
/wb,load,end               !  done creating loads
/com,--- Number of total nodes = %_numnode%
/com,--- Number of contact elements = 0
/com,--- Number of spring elements = 0
/com,--- Number of bearing elements = 0
/com,--- Number of solid elements = 282
/com,--- Number of condensed parts = 0
/com,--- Number of total elements = %_numelem%
*get,_wallbsol,active,,time,wall
/com,****************************************************************************
/com,*************************    SOLUTION       ********************************
/com,****************************************************************************
/solu
antype,0                   ! static analysis
_thickRatio=  0     ! Ratio of thick parts in the model
eqsl,sparse,,,,,1
cntr,print,1               ! print out contact info and also make no initial contact an error
nldiag,cont,iter           ! print out contact info each equilibrium iteration
rescontrol,linear,last           ! Turn on restart files due to future eigen analysis intent
/com,****************************************************
/com,******************* SOLVE FOR LS 1 OF 1 ****************
esel,s,real,,5
sfe,all,1,pres,1,0.
esel,s,real,,6
sfe,all,1,pres,1,0.
esel,s,real,,7
sfe,all,1,pres,1,1.
esel,all
/nopr
/gopr
nsub,1,1,1
time,1.
outres,erase
outres,all,none
outres,nsol,all,
outres,rsol,all
outres,eangl,all
outres,etmp,all
outres,veng,all
outres,strs,all,
outres,epel,all,
outres,eppl,all,
outres,cont,all,
/nopr
esel,s,type,,1
esel,a,type,,2,4
cm,_elmisc,elem
esel,all
/gopr
outres,misc,all,_elmisc
! *********** WB SOLVE COMMAND ***********
! check interactive state
*get,ANSINTER_,active,,int
*if,ANSINTER_,ne,0,then
/eof
*endif
solve
/com *************** Write FE CONNECTORS ********* 
CEWRITE,file,ce,,INTE
/com,****************************************************
/com,*************** FINISHED SOLVE FOR LS 1 *************
*get,_wallasol,active,,time,wall
/nopr
*get,_numnode,node,0,count
*get,_numelem,elem,0,count
*get, _MAXELEMNUM, elem, 0, NUM, MAX
*get, _MAXNODENUM, node, 0, NUM, MAX,,,INTERNAL
*get, _MAXELEMTYPE, etyp, 0, NUM, MAX
*get, _MAXREALCONST, rcon, 0, NUM, MAX
*get,_NSOLTHREADS,active,0,ntfs
*get,_NSOLPROCESSES,active,0,npfs
/gopr
/post1
xmlo,ENCODING,ISO-8859-1
xmlo,parm
/xml,parm,xml
fini
/gopr
*get,_walldone,active,,time,wall
_preptime=(_wallbsol-_wallstrt)*3600
_solvtime=(_wallasol-_wallbsol)*3600
_posttime=(_walldone-_wallasol)*3600
_totaltim=(_walldone-_wallstrt)*3600
*get,_dlbratio,active,0,solu,dlbr
*get,_combtime,active,0,solu,comb
*get,_ssmode,active,0,solu,ssmm
*get,_ndofs,active,0,solu,ndof
/com,--- Total number of nodes = %_numnode%
/com,--- Total number of elements = %_numelem%
/com,--- Element load balance ratio = %_dlbratio%
/com,--- Time to combine distributed files = %_combtime%
/com,--- Sparse memory mode = %_ssmode%
/com,--- Number of DOF = %_ndofs%
/wb,file,end               ! done with WB generated input
